/*--------------------------------*- C++ -*----------------------------------*\
| =========                 |                                                 |
| \\      /  F ield         | OpenFOAM: The Open Source CFD Toolbox           |
|  \\    /   O peration     | Version:  2.0.x                                 |
|   \\  /    A nd           | Web:      www.OpenFOAM.org                      |
|    \\/     M anipulation  |                                                 |
\*---------------------------------------------------------------------------*/
FoamFile
{
    version     2.0;
    format      ascii;
    class       volScalarField;
    location    "0";
    object      p;
}
// * * * * * * * * * * * * * * * * * * * * * * * * * * * * * * * * * * * * * //

dimensions      [1 -1 -2 0 0 0 0];

internalField   uniform 101325;

boundaryField
{
    fuelinlet
    {
        type            zeroGradient;
    }
    innerwall
    {
        type            zeroGradient;
    }
    pilotinlet
    {
        type            zeroGradient;
    }
    outerwall
    {
        type            zeroGradient;
    }
    airinlet
    {
        type            zeroGradient;
    }
    outlet
    {
        type            totalPressure;
        p0		        $internalField;
        phi		        phi;
        U		        U;
        psi		        none;
        gamma		    0;
        value           $internalField;
    }
    axis
    {
        type            empty;
    }
    leftside
    {
        type            zeroGradient;
    }
    front
    {
        type            wedge;
    }
    back
    {
        type            wedge;
    }
}


// ************************************************************************* //
